Version 4
SHEET 1 992 932
WIRE -544 -208 -544 -224
WIRE -400 -208 -400 -224
WIRE -112 -208 -112 -224
WIRE 32 -208 32 -224
WIRE 192 -208 192 -224
WIRE 208 -16 208 -32
WIRE 400 -16 400 -32
WIRE 304 64 208 64
WIRE 352 64 304 64
WIRE 400 112 400 80
WIRE 400 112 368 112
WIRE -400 160 -416 160
WIRE 304 192 304 160
WIRE 400 192 304 192
WIRE 624 192 400 192
WIRE 736 192 624 192
WIRE -560 256 -560 160
WIRE -560 256 -624 256
WIRE -512 256 -560 256
WIRE -400 272 -400 160
WIRE -400 272 -448 272
WIRE -288 272 -400 272
WIRE -192 272 -208 272
WIRE 80 272 0 272
WIRE -512 288 -624 288
WIRE 208 288 208 64
WIRE 400 288 400 192
WIRE -192 368 -240 368
WIRE 32 368 0 368
WIRE 80 368 32 368
WIRE 32 496 32 448
WIRE 208 496 208 464
WIRE 208 496 32 496
WIRE 208 544 208 496
WIRE -624 704 -624 368
WIRE 400 704 400 368
WIRE 400 704 -624 704
WIRE 400 736 400 704
WIRE 400 832 400 816
FLAG -112 -128 0
FLAG 32 -128 0
FLAG 192 -128 0
FLAG -112 -224 HV+
FLAG 32 -224 HV-
FLAG 192 -224 VIN
FLAG 208 -32 HV+
FLAG 400 -32 HV+
FLAG -544 -128 0
FLAG -400 -128 0
FLAG -544 -224 V+
FLAG -400 -224 V-
FLAG -480 240 V+
FLAG -480 304 V-
FLAG 736 192 vout
FLAG 400 832 0
FLAG -624 176 VIN
FLAG 208 544 HV-
FLAG -240 368 0
FLAG 80 192 HV-
FLAG 624 272 0
SYMBOL voltage -112 -224 R0
WINDOW 123 0 0 Left 2
WINDOW 39 0 0 Left 2
SYMATTR InstName V1
SYMATTR Value 420
SYMBOL voltage 32 -224 R0
WINDOW 123 0 0 Left 2
WINDOW 39 0 0 Left 2
SYMATTR InstName V2
SYMATTR Value -420
SYMBOL voltage 192 -224 R0
WINDOW 123 24 44 Left 2
WINDOW 39 0 0 Left 2
SYMATTR Value2 AC 10 0
SYMATTR InstName V3
SYMATTR Value SINE(0 10 100 0 0 0 0)
SYMBOL nmos 352 -16 R0
SYMATTR InstName M2
SYMATTR Value STW11NM80
SYMBOL npn 368 64 M0
SYMATTR InstName Q1
SYMATTR Value 2N3904
SYMBOL res 384 96 R0
SYMATTR InstName R3
SYMATTR Value 65
SYMBOL voltage -544 -224 R0
WINDOW 123 0 0 Left 2
WINDOW 39 0 0 Left 2
SYMATTR InstName V4
SYMATTR Value 15
SYMBOL voltage -400 -224 R0
WINDOW 123 0 0 Left 2
WINDOW 39 0 0 Left 2
SYMATTR InstName V5
SYMATTR Value -15
SYMBOL res 416 384 R180
WINDOW 0 36 76 Left 2
WINDOW 3 36 40 Left 2
SYMATTR InstName R5
SYMATTR Value 2meg
SYMBOL res 416 832 R180
WINDOW 0 36 76 Left 2
WINDOW 3 36 40 Left 2
SYMATTR InstName R6
SYMATTR Value 50k
SYMBOL res 192 -32 R0
SYMATTR InstName R1
SYMATTR Value 1meg
SYMBOL res -640 272 R0
SYMATTR InstName R4
SYMATTR Value 10k
SYMBOL res -640 160 R0
SYMATTR InstName R10
SYMATTR Value 10k
SYMBOL res -576 144 M90
WINDOW 0 0 56 VBottom 2
WINDOW 3 32 56 VTop 2
SYMATTR InstName R12
SYMATTR Value 10k
SYMBOL cap -480 144 M90
WINDOW 0 0 32 VBottom 2
WINDOW 3 32 32 VTop 2
SYMATTR InstName C1
SYMATTR Value 10n
SYMBOL Opamps\\LT1352 -480 208 R0
SYMATTR InstName U3
SYMBOL res 192 368 R0
SYMATTR InstName R8
SYMATTR Value 5k
SYMBOL nmos 160 288 R0
SYMATTR InstName M1
SYMATTR Value STW11NM80
SYMBOL res 176 352 R90
WINDOW 0 0 56 VBottom 2
WINDOW 3 32 56 VTop 2
SYMATTR InstName R9
SYMATTR Value 100
SYMBOL Optos\\PC817A -96 320 R0
SYMATTR InstName U1
SYMBOL res -192 256 R90
WINDOW 0 0 56 VBottom 2
WINDOW 3 32 56 VTop 2
SYMATTR InstName R2
SYMATTR Value 100
SYMBOL voltage 80 288 R180
WINDOW 123 0 0 Left 2
WINDOW 39 0 0 Left 2
SYMATTR InstName V6
SYMATTR Value 15
SYMBOL res 16 352 R0
SYMATTR InstName R7
SYMATTR Value 100k
SYMBOL res 608 176 R0
SYMATTR InstName R11
SYMATTR Value 1meg
TEXT 792 296 Left 2 !;dc V3 -10 10 .1
TEXT 792 272 Left 2 !.tran 100m
TEXT 808 328 Left 2 !;.op
